Version 4
SHEET 1 1348 680
WIRE 1152 -656 976 -656
WIRE 720 -368 640 -368
WIRE 1008 -368 976 -368
WIRE 784 -160 784 -192
WIRE 1152 -128 1152 -656
WIRE 1152 -128 928 -128
WIRE 928 -64 928 -128
WIRE 1056 -64 992 -64
WIRE 768 0 624 0
WIRE 928 16 928 -64
WIRE 1056 16 1056 -64
WIRE 1056 16 1008 16
WIRE 768 48 768 0
WIRE 1008 48 768 48
WIRE 832 64 656 64
WIRE 1008 96 1008 48
WIRE 768 112 768 48
WIRE 768 112 752 112
WIRE 928 112 928 16
WIRE 944 112 928 112
WIRE 656 128 656 64
WIRE 688 128 656 128
WIRE 1024 128 1008 128
WIRE 1056 128 1056 16
WIRE 1200 128 1056 128
WIRE 784 144 752 144
WIRE 832 144 832 64
WIRE 944 144 832 144
WIRE 400 160 0 160
WIRE 432 160 400 160
WIRE 528 160 512 160
WIRE 544 160 528 160
WIRE 640 160 544 160
WIRE 688 160 640 160
WIRE 1056 160 1056 128
WIRE 1056 160 1008 160
WIRE 0 176 0 160
WIRE 832 176 832 144
WIRE 832 176 752 176
WIRE 400 240 400 160
WIRE 448 240 400 240
WIRE 528 240 528 160
WIRE 528 240 512 240
WIRE 544 240 544 160
WIRE 976 320 768 320
WIRE 1040 352 928 352
WIRE 976 400 976 320
WIRE 928 416 928 352
WIRE 944 416 928 416
WIRE 1040 432 1040 352
WIRE 1040 432 1008 432
WIRE 1168 432 1040 432
WIRE 768 448 768 320
WIRE 816 448 768 448
WIRE 912 448 896 448
WIRE 944 448 912 448
WIRE 912 512 912 448
FLAG 544 0 0
FLAG 768 528 0
FLAG 912 592 0
FLAG 1168 432 1.65
FLAG 544 320 0
FLAG 976 464 0
FLAG 640 -816 1.65
FLAG 640 -752 1.65
FLAG 912 -192 0
FLAG 0 256 0
FLAG 1200 128 V_measure
FLAG 1120 -928 V+
FLAG 1120 -848 0
FLAG 848 -944 V+
FLAG 1008 -368 V+
FLAG 784 -160 V-
FLAG 720 -240 0
FLAG 1248 -928 V-
FLAG 1248 -848 0
FLAG 640 224 0
FLAG 784 144 0
FLAG 1024 128 0
FLAG 624 -80 0
FLAG 720 -304 0
FLAG 640 -368 V+
SYMBOL voltage 544 96 R180
WINDOW 0 24 96 Left 2
WINDOW 3 24 16 Left 2
WINDOW 123 0 0 Left 0
WINDOW 39 0 0 Left 0
SYMATTR InstName V2
SYMATTR Value 3.3
SYMBOL res 528 64 R0
SYMATTR InstName R1
SYMATTR Value 60.4K
SYMBOL voltage 768 432 R0
WINDOW 123 0 0 Left 0
WINDOW 39 0 0 Left 0
SYMATTR InstName V3
SYMATTR Value 3.3
SYMBOL res 912 432 R90
WINDOW 0 0 56 VBottom 2
WINDOW 3 32 56 VTop 2
SYMATTR InstName R2
SYMATTR Value 10k
SYMBOL res 896 496 R0
SYMATTR InstName R3
SYMATTR Value 10k
SYMBOL res 528 144 R90
WINDOW 0 0 56 VBottom 2
WINDOW 3 32 56 VTop 2
SYMATTR InstName R4
SYMATTR Value 1Meg
SYMBOL res 528 224 R0
SYMATTR InstName R5
SYMATTR Value 63.4K
SYMBOL res 1024 0 R90
WINDOW 0 0 56 VBottom 2
WINDOW 3 32 56 VTop 2
SYMATTR InstName R6
SYMATTR Value 1k
SYMBOL Switches\\ADG1208 848 -624 R0
SYMATTR InstName U5
SYMBOL res 736 -832 R90
WINDOW 0 0 56 VBottom 2
WINDOW 3 32 56 VTop 2
SYMATTR InstName R7
SYMATTR Value 1k
SYMBOL res 736 -768 R90
WINDOW 0 0 56 VBottom 2
WINDOW 3 32 56 VTop 2
SYMATTR InstName R8
SYMATTR Value 200
SYMBOL OpAmps\\UniversalOpAmp2 976 432 R0
SYMATTR InstName U3
SYMBOL voltage 1120 -944 R0
WINDOW 123 0 0 Left 0
WINDOW 39 0 0 Left 0
SYMATTR InstName V4
SYMATTR Value 3.3
SYMBOL voltage 1248 -944 R0
WINDOW 123 0 0 Left 0
WINDOW 39 0 0 Left 0
SYMATTR InstName V5
SYMATTR Value -3.3
SYMBOL voltage 0 160 R0
WINDOW 0 24 96 Left 2
WINDOW 3 24 16 Left 2
WINDOW 123 24 44 Left 2
WINDOW 39 0 0 Left 0
SYMATTR InstName V1
SYMATTR Value SINE(0 10 500k)
SYMATTR Value2 AC 30
SYMBOL cap 992 -80 R90
WINDOW 0 0 32 VBottom 2
WINDOW 3 32 32 VTop 2
SYMATTR InstName C1
SYMATTR Value 1p
SYMBOL cap 624 160 R0
SYMATTR InstName C3
SYMATTR Value 110p
SYMBOL cap 512 224 R90
WINDOW 0 0 32 VBottom 2
WINDOW 3 32 32 VTop 2
SYMATTR InstName C2
SYMATTR Value 3.4p
SYMBOL LMH6642 720 144 R0
SYMATTR InstName U1
SYMBOL LMH6642 976 128 R0
SYMATTR InstName U2
SYMBOL voltage 624 16 R180
WINDOW 0 24 96 Left 2
WINDOW 3 24 16 Left 2
WINDOW 123 0 0 Left 0
WINDOW 39 0 0 Left 0
SYMATTR InstName V6
SYMATTR Value 5
TEXT 208 440 Left 2 ;.ac dec 100 10 100Meg
TEXT 56 488 Left 2 !.tran 1m
